126
BeP2N4_datenbank
Be 1.2294635432607124 2.443914915958074 2.078796419999991
N 1.994307668194148 0.80254527197548 2.0754569879999907
N 2.1193487726573936 3.624645665837989 2.1798142379999903
N 0.2716626934740725 2.372455306400513 0.672060689999997
N 0.20247775431977463 2.5010826275579534 3.4997247359999846
P 2.568099549981922 0.22867066755778592 3.4771835699999847
P 2.5141477397658734 0.06706204022515237 0.6428406599999973
Be -1.5017600969313663 2.2867043654542494 6.269783579999972
N 0.3021297643474185 2.1283940986823704 6.273123011999972
N -2.0793602217395657 3.6477329030907333 6.168765761999973
N -1.9187747385865033 1.4214948950100934 7.676519309999966
N -2.0647617356323757 1.425892173242568 4.848855263999979
P 1.086015704355152 2.338374964273106 4.871396429999978
P 1.1989969680310741 2.210847478882205 7.705739339999966
Be -3.6160301843608953 11.150979942982238 6.269783579999972
N -4.655075920237439 9.667920566583518 6.273123011999972
N -2.1485448443373696 10.970682130662844 6.168765761999973
N -4.156816195008239 11.944730145921406 7.676519309999966
N -4.080014534077403 12.06895950129025 4.848855263999979
P -4.865170175238352 8.884064755740507 4.871396429999978
P -5.032102851231969 8.849984302978884 7.705739339999966
Be 5.117792533346565 8.549854305324889 6.269783579999972
N 4.35294840841313 10.191223949307483 6.273123011999972
N 4.227907303949884 7.369123555444973 6.168765761999973
N 6.075593383133205 8.62131391488245 7.676519309999966
N 6.144778322287503 8.492686593725008 4.848855263999979
P 3.779156526625356 10.765098553725176 4.871396429999978
P 3.8331083368414034 10.92670718105781 7.705739339999966
Be 7.849016173538644 8.707064855828714 2.078796419999991
N 6.045126312259858 8.865375122600591 2.0754569879999907
N 8.426616298346847 7.346036318192228 2.1798142379999903
N 8.266030815193782 9.57227432627287 0.672060689999997
N 8.412017812239652 9.567877048040392 3.4997247359999846
P 5.261240372252126 8.655394257009856 3.4771835699999847
P 5.148259108576204 8.782921742400756 0.6428406599999973
Be 9.963286260968173 -0.15721072169927686 2.078796419999991
N 11.002331996844719 1.325848654699444 2.0754569879999907
N 8.495800920944648 0.023087090620117993 2.1798142379999903
N 10.504072271615517 -0.9509609246384448 0.672060689999997
N 10.427270610684683 -1.075190280007289 3.4997247359999846
P 11.212426251845628 2.1097044655424555 3.4771835699999847
P 11.379358927839247 2.1437849183040774 0.6428406599999973
Be 4.845494871266789 5.951293429220037 0.7040635799999965
N 6.649384732545575 5.792983162448158 0.7074030119999966
N 4.267894746458589 7.312321966856521 0.6030457619999972
N 4.428480229611652 5.086083958775881 2.11079930999999
N 4.28249323256578 5.090481237008356 -0.7168647359999971
P 7.433270672553306 6.002964028038894 -0.6943235699999973
P 7.546251936229231 5.875436542647992 2.14001933999999
Be 9.07847909790092 3.8218004621269306 0.7040635799999965
N 8.039433362024376 2.33874108572821 0.7074030119999966
N 10.545964437924447 3.641502649807536 0.6030457619999972
N 8.537693087253578 4.615550665066099 2.11079930999999
N 8.614494748184411 4.739780020434943 -0.7168647359999971
P 7.829339107023465 1.554885274885198 -0.6943235699999973
P 7.6624064310298445 1.5208048221235761 2.14001933999999
Be 5.11779181560838 1.2206748244695795 0.7040635799999965
N 4.352947690674946 2.862044468452174 0.7074030119999966
N 4.2279065862117 0.03994407458966469 0.6030457619999972
N 6.075592665395021 1.2921344340271408 2.11079930999999
N 6.144777604549318 1.1635071128697 -0.7168647359999971
P 3.779155808887172 3.435919072869868 -0.6943235699999973
P 3.83310761910322 3.5975277002025017 2.14001933999999
Be 7.8490158464713975 1.3778860516352702 4.861656419999979
N 6.045125985192613 1.5361963184071494 4.858316987999978
N 8.426615971279599 0.016857513998786253 4.962674237999978
N 8.266030488126535 2.243095522079426 3.4549206899999847
N 8.412017485172408 2.238698243846952 6.282584735999971
P 5.261240045184881 1.3262154528164134 6.260043569999972
P 5.148258781508957 1.453742938207315 3.425700659999985
Be 3.6160316198372673 3.507379018728377 4.861656419999979
N 4.6550773557138125 4.990438395127097 4.858316987999978
N 2.1485462798137407 3.6876768310477717 4.962674237999978
N 4.1568176304846105 2.713628815789209 3.4549206899999847
N 4.080015969553776 2.589399460420365 6.282584735999971
P 4.8651716107147225 5.774294205970109 6.260043569999972
P 5.032104286708341 5.808374658731731 3.425700659999985
Be 7.576718902129805 6.108504656385728 4.861656419999979
N 8.341563027063241 4.4671350124031335 4.858316987999978
N 8.466604131526486 7.289235406265642 4.962674237999978
N 6.618918052343166 6.037045046828167 3.4549206899999847
N 6.549733113188869 6.165672367985607 6.282584735999971
P 8.915354908851015 3.8932604079854394 6.260043569999972
P 8.861403098634968 3.731651780652806 3.425700659999985
Be -1.5017597698641196 9.615883169647692 3.486923579999985
N 0.302130091414665 9.457572902875812 3.4902630119999847
N -2.0793598946723195 10.976911707284177 3.3859057619999855
N -1.918774411519257 8.750673699203537 4.893659309999979
N -2.06476140856513 8.755070977436011 2.0659952639999912
P 1.0860160314223986 9.667553768466549 2.088536429999991
P 1.1989972950983199 9.540026283075647 4.922879339999979
Be 2.731224456770011 7.486390202554586 3.486923579999985
N 1.692178720893467 6.003330826155865 3.4902630119999847
N 4.198709796793537 7.306092390235191 3.3859057619999855
N 2.190438446122668 8.280140405493754 4.893659309999979
N 2.2672401070535018 8.404369760862597 2.0659952639999912
P 1.4820844658925554 5.219475015312853 2.088536429999991
P 1.3151517898989362 5.185394562551232 4.922879339999979
Be -1.2294628255225273 4.885264564897234 3.486923579999985
N -1.9943069504559634 6.5266342088798295 3.4902630119999847
N -2.119348054919209 3.70453381501732 3.3859057619999855
N -0.27166197573588785 4.956724174454796 4.893659309999979
N -0.20247703658158975 4.828096853297355 2.0659952639999912
P -2.568098832243737 7.100508813297523 2.088536429999991
P -2.514147022027689 7.262117440630157 4.922879339999979
Be 1.5017612053404903 5.042475792062925 7.644516419999967
N -0.30212865593829485 5.2007860588348045 7.641176987999967
N 2.0793613301486893 3.681447254426441 7.7455342379999665
N 1.9187758469956264 5.907685262507082 6.237780689999973
N 2.064762844041499 5.903287984274606 9.06544473599996
P -1.0860145959460288 4.99080519324407 9.042903569999961
P -1.198995859621951 5.118332678634969 6.208560659999972
Be -2.7312230212936415 7.171968759156032 7.644516419999967
N -1.6921772854170973 8.655028135554753 7.641176987999967
N -4.198708361317168 7.352266571475426 7.7455342379999665
N -2.190437010646298 6.378218556216864 6.237780689999973
N -2.2672386715771315 6.25398920084802 9.06544473599996
P -1.4820830304161856 9.438883946397763 9.042903569999961
P -1.315150354422567 9.472964399159386 6.208560659999972
Be 1.2294642609988975 9.773094396813383 7.644516419999967
N 1.9943083859323323 8.131724752830788 7.641176987999967
N 2.1193494903955776 10.9538251466933 7.7455342379999665
N 0.2716634112122576 9.701634787255822 6.237780689999973
N 0.20247847205795905 9.830262108413264 9.06544473599996
P 2.5681002677201072 7.557850148413095 9.042903569999961
P 2.5141484575040582 7.39624152108046 6.208560659999972
